*** SCH_PATH: /HOME/TORORO009/WORK/LR_HASEGAWA/LR_HASEGAWA/LR_WORK2/CITIZEN035/INV_CITIZEN_1.SCH
***.SUBCKT INV_CITIZEN_1 IN OUT
**.IPIN IN
**.OPIN OUT
X1 IN OUT INVERTER_CITIZEN
***** BEGIN USER ARCHITECTURE CODE
*
*BLABLA
*
*
*
*
*VVDD VDD 0 DC 3.3
*
*VIN IN 0 PULSE(0 3.3 100N 1N 1N 100N 200N)
*
**CLOAD Q 0 1P
**CLOAD XQ 0 1P
*
*
*.CONTROL
*TRAN 1N 1000N
*WRITE BUFFER_CITIZEN#1.RAW
*
*.ENDC
*
***** END USER ARCHITECTURE CODE
***.ENDS
*
** EXPANDING   SYMBOL:  WORK/LR_HASEGAWA/LR_HASEGAWA/LR_WORK2/CITIZEN035/INVERTER_CITIZEN.SYM # OF PINS=2
*** SYM_PATH: /HOME/TORORO009/WORK/LR_HASEGAWA/LR_HASEGAWA/LR_WORK2/CITIZEN035/INVERTER_CITIZEN.SYM
*** SCH_PATH: /HOME/TORORO009/WORK/LR_HASEGAWA/LR_HASEGAWA/LR_WORK2/CITIZEN035/INVERTER_CITIZEN.SCH
.SUBCKT INVERTER_CITIZEN IN OUT
**.IOPIN OUT
**.IOPIN IN
M1 OUT IN GND GND NCH L=0.4U W=1.2U M=1
M2 OUT IN VDD VDD PCH L=0.4U W=3.6U M=1
.ENDS
*
.GLOBAL VDD
.GLOBAL GND
*.END
.GLOBAL 0
.END
