** sch_path: /home/tororo009/work/LR_hasegawa/LR_hasegawa/LR_Work2/Citizen035/NAND2_citizen#2.sch
**.subckt NAND2_citizen#2 OUT IN2 IN1
*.iopin OUT
*.iopin IN2
*.iopin IN1
x1 net4 net1 INVERTER_Citizen
x2 net1 net2 INVERTER3_Citizen
x3 net2 net3 INVERTER9_Citizen
x4 net3 OUT INVERTER27_Citizen
x5 net4 IN1 IN2 NAND2_Citizen
**** begin user architecture code

blabla




VVDD VDD 0 DC 3.3

VIN1 IN1 0 pulse(0 3.3 100n 1n 1n 100n 200n)
VIN2 IN2 0 pulse(0 3.3 100n 1n 1n 100n 200n)

*Cload Q 0 1p
*Cload XQ 0 1p


.control
tran 1n 1000n

meas TRAN Iavg AVG I(VVDD)

.endc

**** end user architecture code
**.ends

* expanding   symbol:  work/LR_hasegawa/LR_hasegawa/LR_Work2/Citizen035/INVERTER_Citizen.sym # of pins=2
** sym_path: /home/tororo009/work/LR_hasegawa/LR_hasegawa/LR_Work2/Citizen035/INVERTER_Citizen.sym
** sch_path: /home/tororo009/work/LR_hasegawa/LR_hasegawa/LR_Work2/Citizen035/INVERTER_Citizen.sch
.subckt INVERTER_Citizen IN OUT
*.iopin OUT
*.iopin IN
M1 OUT IN GND GND nch w=1.2u l=0.4u as=0 ps=0 ad=0 pd=0 m=1
M2 OUT IN VDD VDD pch w=3.6u l=1.2u as=0 ps=0 ad=0 pd=0 m=1
.ends


* expanding   symbol:  work/LR_hasegawa/LR_hasegawa/LR_Work2/Citizen035/INVERTER3_Citizen.sym # of pins=2
** sym_path: /home/tororo009/work/LR_hasegawa/LR_hasegawa/LR_Work2/Citizen035/INVERTER3_Citizen.sym
** sch_path: /home/tororo009/work/LR_hasegawa/LR_hasegawa/LR_Work2/Citizen035/INVERTER3_Citizen.sch
.subckt INVERTER3_Citizen IN OUT
*.iopin OUT
*.iopin IN
M1 OUT IN GND GND nch w=1.2u l=0.4u as=0 ps=0 ad=0 pd=0 m=3
M2 OUT IN VDD VDD pch w=3.6u l=1.2u as=0 ps=0 ad=0 pd=0 m=3
.ends


* expanding   symbol:  work/LR_hasegawa/LR_hasegawa/LR_Work2/Citizen035/INVERTER9_Citizen.sym # of pins=2
** sym_path: /home/tororo009/work/LR_hasegawa/LR_hasegawa/LR_Work2/Citizen035/INVERTER9_Citizen.sym
** sch_path: /home/tororo009/work/LR_hasegawa/LR_hasegawa/LR_Work2/Citizen035/INVERTER9_Citizen.sch
.subckt INVERTER9_Citizen IN OUT
*.iopin OUT
*.iopin IN
M1 OUT IN GND GND nch w=1.2u l=0.4u as=0 ps=0 ad=0 pd=0 m=9
M2 OUT IN VDD VDD pch w=3.6u l=1.2u as=0 ps=0 ad=0 pd=0 m=9
.ends


* expanding   symbol:  work/LR_hasegawa/LR_hasegawa/LR_Work2/Citizen035/INVERTER27_Citizen.sym # of pins=2
** sym_path: /home/tororo009/work/LR_hasegawa/LR_hasegawa/LR_Work2/Citizen035/INVERTER27_Citizen.sym
** sch_path: /home/tororo009/work/LR_hasegawa/LR_hasegawa/LR_Work2/Citizen035/INVERTER27_Citizen.sch
.subckt INVERTER27_Citizen IN OUT
*.iopin IN
*.iopin OUT
M1 OUT IN GND GND nch w=1.2u l=0.4u as=0 ps=0 ad=0 pd=0 m=27
M2 OUT IN VDD VDD pch w=3.6u l=0.4u as=0 ps=0 ad=0 pd=0 m=27
.ends


* expanding   symbol:  work/LR_hasegawa/LR_hasegawa/LR_Work2/Citizen035/NAND2_Citizen.sym # of pins=3
** sym_path: /home/tororo009/work/LR_hasegawa/LR_hasegawa/LR_Work2/Citizen035/NAND2_Citizen.sym
** sch_path: /home/tororo009/work/LR_hasegawa/LR_hasegawa/LR_Work2/Citizen035/NAND2_Citizen.sch
.subckt NAND2_Citizen OUT IN1 IN2
*.iopin OUT
*.iopin IN1
*.iopin IN2
M5 net1 IN2 GND GND nch w=2.4u l=0.4u as=0 ps=0 ad=0 pd=0 m=1
M6 OUT IN1 net1 GND nch w=2.4u l=0.4u as=0 ps=0 ad=0 pd=0 m=1
M7 OUT IN2 VDD VDD pch w=3.6u l=0.4u as=0 ps=0 ad=0 pd=0 m=1
M8 OUT IN1 VDD VDD pch w=3.6u l=0.4u as=0 ps=0 ad=0 pd=0 m=1
.ends

.GLOBAL VDD
.GLOBAL GND
.end
