*** SCH_PATH: /HOME/TORORO009/WORK/LR_HASEGAWA/LR_HASEGAWA/LR_WORK2/CITIZEN035/NEUCMOSNAND2_CITIZEN_1.SCH
***.SUBCKT NEUCMOSNAND2_CITIZEN_1 OUT IN2 IN1
**.IOPIN OUT
**.IOPIN IN2
**.IOPIN IN1
X1 NET4 NET1 INVERTER_CITIZEN
X2 NET1 NET2 INVERTER3_CITIZEN
X3 NET2 NET3 INVERTER9_CITIZEN
X4 NET3 OUT INVERTER27_CITIZEN
X5 NET5 NET4 INVERTER_CITIZEN
C1 NET5 IN1 105F M=1
C2 NET5 IN2 105F M=1
C3 NET5 GND 105F M=1
***** BEGIN USER ARCHITECTURE CODE
*
*BLABLA
*
*
*
*
*VVDD VDD 0 DC 3.3
*
*VIN1 IN1 0 PULSE(0 3.3 100N 1N 1N 100N 200N)
*VIN2 IN2 0 PULSE(0 3.3 100N 1N 1N 100N 200N)
*
**CLOAD Q 0 1P
**CLOAD XQ 0 1P
*
*
*.CONTROL
*TRAN 1N 1000N
*
*WRITE BUFFER_CITIZEN#1.RAW
*
*.ENDC
*
***** END USER ARCHITECTURE CODE
***.ENDS
*
** EXPANDING   SYMBOL:  WORK/LR_HASEGAWA/LR_HASEGAWA/LR_WORK2/CITIZEN035/INVERTER_CITIZEN.SYM # OF PINS=2
*** SYM_PATH: /HOME/TORORO009/WORK/LR_HASEGAWA/LR_HASEGAWA/LR_WORK2/CITIZEN035/INVERTER_CITIZEN.SYM
*** SCH_PATH: /HOME/TORORO009/WORK/LR_HASEGAWA/LR_HASEGAWA/LR_WORK2/CITIZEN035/INVERTER_CITIZEN.SCH
.SUBCKT INVERTER_CITIZEN IN OUT
**.IOPIN OUT
**.IOPIN IN
M1 OUT IN GND GND NCH L=0.4U W=1.2U M=1
M2 OUT IN VDD VDD PCH L=0.4U W=3.6U M=1
.ENDS
*
*
** EXPANDING   SYMBOL:  WORK/LR_HASEGAWA/LR_HASEGAWA/LR_WORK2/CITIZEN035/INVERTER3_CITIZEN.SYM # OF PINS=2
*** SYM_PATH: /HOME/TORORO009/WORK/LR_HASEGAWA/LR_HASEGAWA/LR_WORK2/CITIZEN035/INVERTER3_CITIZEN.SYM
*** SCH_PATH: /HOME/TORORO009/WORK/LR_HASEGAWA/LR_HASEGAWA/LR_WORK2/CITIZEN035/INVERTER3_CITIZEN.SCH
.SUBCKT INVERTER3_CITIZEN IN OUT
**.IOPIN OUT
**.IOPIN IN
M1 OUT IN GND GND NCH L=0.4U W=3.5999999999999996U M=1
M2 OUT IN VDD VDD PCH L=0.4U W=10.8U M=1
.ENDS
*
*
** EXPANDING   SYMBOL:  WORK/LR_HASEGAWA/LR_HASEGAWA/LR_WORK2/CITIZEN035/INVERTER9_CITIZEN.SYM # OF PINS=2
*** SYM_PATH: /HOME/TORORO009/WORK/LR_HASEGAWA/LR_HASEGAWA/LR_WORK2/CITIZEN035/INVERTER9_CITIZEN.SYM
*** SCH_PATH: /HOME/TORORO009/WORK/LR_HASEGAWA/LR_HASEGAWA/LR_WORK2/CITIZEN035/INVERTER9_CITIZEN.SCH
.SUBCKT INVERTER9_CITIZEN IN OUT
**.IOPIN OUT
**.IOPIN IN
M1 OUT IN GND GND NCH L=0.4U W=10.799999999999999U M=1
M2 OUT IN VDD VDD PCH L=0.4U W=32.4U M=1
.ENDS
*
*
** EXPANDING   SYMBOL:  WORK/LR_HASEGAWA/LR_HASEGAWA/LR_WORK2/CITIZEN035/INVERTER27_CITIZEN.SYM # OF PINS=2
*** SYM_PATH: /HOME/TORORO009/WORK/LR_HASEGAWA/LR_HASEGAWA/LR_WORK2/CITIZEN035/INVERTER27_CITIZEN.SYM
*** SCH_PATH: /HOME/TORORO009/WORK/LR_HASEGAWA/LR_HASEGAWA/LR_WORK2/CITIZEN035/INVERTER27_CITIZEN.SCH
.SUBCKT INVERTER27_CITIZEN IN OUT
**.IOPIN IN
**.IOPIN OUT
M1 OUT IN GND GND NCH L=0.4U W=32.4U M=1
M2 OUT IN VDD VDD PCH L=0.4U W=97.2U M=1
.ENDS
*
.GLOBAL GND
.GLOBAL VDD
*.END
.GLOBAL 0
.END
